[TITLE]


[JUNCTIONS]
;ID              	Elev        	Demand      	Pattern         
;NFLOURS    Value
;PRESS_DRIVEN    Ref.press   Tresh.press
 1               	1000.00     	0           	                	;
; NFLOURS     	1           
; PRESS_DRIVEN	20.305	-1.0        
 2               	1009.00     	0           	                	;
; NFLOURS     	1           
; PRESS_DRIVEN	20.305	-1.0        
 3               	1001.50     	0           	                	;
; NFLOURS     	1           
; PRESS_DRIVEN	20.305	-1.0        
 4               	1004.50     	0           	                	;
; NFLOURS     	1           
; PRESS_DRIVEN	20.305	-1.0        
 5               	1005.00     	0           	                	;
; NFLOURS     	1           
; PRESS_DRIVEN	20.305	-1.0        
 6               	1015.00     	0           	                	;
; NFLOURS     	1           
; PRESS_DRIVEN	20.305	-1.0        
 7               	1000.50     	0           	                	;
; NFLOURS     	1           
; PRESS_DRIVEN	20.305	-1.0        
 8               	998.00      	0           	                	;
; NFLOURS     	1           
; PRESS_DRIVEN	20.305	-1.0        
 9               	998.00      	0           	                	;
; NFLOURS     	1           
; PRESS_DRIVEN	20.305	-1.0        
 10              	1005.00     	0           	                	;
; NFLOURS     	1           
; PRESS_DRIVEN	20.305	-1.0        
 11              	1007.50     	0           	                	;
; NFLOURS     	1           
; PRESS_DRIVEN	20.305	-1.0        
 12              	1009.00     	0           	                	;
; NFLOURS     	1           
; PRESS_DRIVEN	20.305	-1.0        
 13              	1005.50     	0           	                	;
; NFLOURS     	1           
; PRESS_DRIVEN	20.305	-1.0        
 14              	1012.00     	0           	                	;
; NFLOURS     	1           
; PRESS_DRIVEN	20.305	-1.0        
 15              	1009.00     	0           	                	;
; NFLOURS     	1           
; PRESS_DRIVEN	20.305	-1.0        
 16              	1004.50     	0           	                	;
; NFLOURS     	1           
; PRESS_DRIVEN	20.305	-1.0        
 17              	1004.00     	0           	                	;
; NFLOURS     	1           
; PRESS_DRIVEN	20.305	-1.0        
 18              	991.50      	0           	                	;
; NFLOURS     	1           
; PRESS_DRIVEN	20.305	-1.0        
 19              	1005.50     	0           	                	;
; NFLOURS     	1           
; PRESS_DRIVEN	20.305	-1.0        
 20              	1004.50     	0           	                	;
; NFLOURS     	1           
; PRESS_DRIVEN	20.305	-1.0        
 21              	1002.50     	0           	                	;
; NFLOURS     	1           
; PRESS_DRIVEN	20.305	-1.0        
 22              	1016.00     	0           	                	;
; NFLOURS     	1           
; PRESS_DRIVEN	20.305	-1.0        
 23              	1005.00     	0           	                	;
; NFLOURS     	1           
; PRESS_DRIVEN	20.305	-1.0        
 24              	1005.00     	0           	                	;
; NFLOURS     	1           
; PRESS_DRIVEN	20.305	-1.0        
 25              	1005.50     	0           	                	;
; NFLOURS     	1           
; PRESS_DRIVEN	20.305	-1.0        
 26              	1008.00     	0           	                	;
; NFLOURS     	1           
; PRESS_DRIVEN	20.305	-1.0        
 27              	1009.00     	0           	                	;
; NFLOURS     	1           
; PRESS_DRIVEN	20.305	-1.0        
 28              	1009.25     	0           	                	;
; NFLOURS     	1           
; PRESS_DRIVEN	20.305	-1.0        
 29              	1003.00     	0           	                	;
; NFLOURS     	1           
; PRESS_DRIVEN	20.305	-1.0        
 30              	998.50      	0           	                	;
; NFLOURS     	1           
; PRESS_DRIVEN	20.305	-1.0        
 31              	994.50      	0           	                	;
; NFLOURS     	1           
; PRESS_DRIVEN	20.305	-1.0        
 32              	1000.50     	0           	                	;
; NFLOURS     	1           
; PRESS_DRIVEN	20.305	-1.0        
 33              	1007.50     	0           	                	;
; NFLOURS     	1           
; PRESS_DRIVEN	20.305	-1.0        
 34              	1011.00     	0           	                	;
; NFLOURS     	1           
; PRESS_DRIVEN	20.305	-1.0        
 35              	1006.00     	0           	                	;
; NFLOURS     	1           
; PRESS_DRIVEN	20.305	-1.0        
 36              	1009.50     	0           	                	;
; NFLOURS     	1           
; PRESS_DRIVEN	20.305	-1.0        
 37              	1008.00     	0           	                	;
; NFLOURS     	1           
; PRESS_DRIVEN	20.305	-1.0        
 38              	1002.50     	0           	                	;
; NFLOURS     	1           
; PRESS_DRIVEN	20.305	-1.0        
 39              	995.50      	0           	                	;
; NFLOURS     	1           
; PRESS_DRIVEN	20.305	-1.0        
 40              	1012.50     	0           	                	;
; NFLOURS     	1           
; PRESS_DRIVEN	20.305	-1.0        
 41              	1009.00     	0           	                	;
; NFLOURS     	1           
; PRESS_DRIVEN	20.305	-1.0        
 42              	1006.00     	0           	                	;
; NFLOURS     	1           
; PRESS_DRIVEN	20.305	-1.0        
 43              	1010.00     	0           	                	;
; NFLOURS     	1           
; PRESS_DRIVEN	20.305	-1.0        
 44              	1008.00     	0           	                	;
; NFLOURS     	1           
; PRESS_DRIVEN	20.305	-1.0        
 45              	1007.00     	0           	                	;
; NFLOURS     	1           
; PRESS_DRIVEN	20.305	-1.0        
 46              	1001.50     	0           	                	;
; NFLOURS     	1           
; PRESS_DRIVEN	20.305	-1.0        
 47              	1001.50     	0           	                	;
; NFLOURS     	1           
; PRESS_DRIVEN	20.305	-1.0        
 48              	1011.00     	0           	                	;
; NFLOURS     	1           
; PRESS_DRIVEN	20.305	-1.0        
 49              	1007.00     	0           	                	;
; NFLOURS     	1           
; PRESS_DRIVEN	20.305	-1.0        
 50              	1009.00     	0           	                	;
; NFLOURS     	1           
; PRESS_DRIVEN	20.305	-1.0        
 51              	996.00      	0           	                	;
; NFLOURS     	1           
; PRESS_DRIVEN	20.305	-1.0        
 52              	997.00      	0           	                	;
; NFLOURS     	1           
; PRESS_DRIVEN	20.305	-1.0        
 53              	1002.00     	0           	                	;
; NFLOURS     	1           
; PRESS_DRIVEN	20.305	-1.0        
 54              	1010.00     	0           	                	;
; NFLOURS     	1           
; PRESS_DRIVEN	20.305	-1.0        
 55              	1004.50     	0           	                	;
; NFLOURS     	1           
; PRESS_DRIVEN	20.305	-1.0        
 56              	1004.50     	0           	                	;
; NFLOURS     	1           
; PRESS_DRIVEN	20.305	-1.0        
 57              	1003.50     	0           	                	;
; NFLOURS     	1           
; PRESS_DRIVEN	20.305	-1.0        
 58              	1005.50     	0           	                	;
; NFLOURS     	1           
; PRESS_DRIVEN	20.305	-1.0        
 59              	1008.00     	0           	                	;
; NFLOURS     	1           
; PRESS_DRIVEN	20.305	-1.0        
 60              	1003.00     	0           	                	;
; NFLOURS     	1           
; PRESS_DRIVEN	20.305	-1.0        
 61              	1007.00     	0           	                	;
; NFLOURS     	1           
; PRESS_DRIVEN	20.305	-1.0        
 62              	1001.00     	0           	                	;
; NFLOURS     	1           
; PRESS_DRIVEN	20.305	-1.0        
 63              	1005.00     	0           	                	;
; NFLOURS     	1           
; PRESS_DRIVEN	20.305	-1.0        
 64              	1008.50     	0           	                	;
; NFLOURS     	1           
; PRESS_DRIVEN	20.305	-1.0        
 65              	1001.50     	0           	                	;
; NFLOURS     	1           
; PRESS_DRIVEN	20.305	-1.0        
 66              	1013.00     	0           	                	;
; NFLOURS     	1           
; PRESS_DRIVEN	20.305	-1.0        
 67              	1010.00     	0           	                	;
; NFLOURS     	1           
; PRESS_DRIVEN	20.305	-1.0        
 68              	1003.00     	0           	                	;
; NFLOURS     	1           
; PRESS_DRIVEN	20.305	-1.0        
 69              	1005.50     	0           	                	;
; NFLOURS     	1           
; PRESS_DRIVEN	20.305	-1.0        
 70              	1007.50     	0           	                	;
; NFLOURS     	1           
; PRESS_DRIVEN	20.305	-1.0        
 71              	1015.50     	0           	                	;
; NFLOURS     	1           
; PRESS_DRIVEN	20.305	-1.0        
 72              	1002.50     	0           	                	;
; NFLOURS     	1           
; PRESS_DRIVEN	20.305	-1.0        
 73              	1001.50     	0           	                	;
; NFLOURS     	1           
; PRESS_DRIVEN	20.305	-1.0        
 74              	1007.50     	0           	                	;
; NFLOURS     	1           
; PRESS_DRIVEN	20.305	-1.0        
 75              	1001.50     	0           	                	;
; NFLOURS     	1           
; PRESS_DRIVEN	20.305	-1.0        
 76              	1008.50     	0           	                	;
; NFLOURS     	1           
; PRESS_DRIVEN	20.305	-1.0        
 77              	1003.00     	0           	                	;
; NFLOURS     	1           
; PRESS_DRIVEN	20.305	-1.0        
 78              	1009.00     	0           	                	;
; NFLOURS     	1           
; PRESS_DRIVEN	20.305	-1.0        
 79              	1007.00     	0           	                	;
; NFLOURS     	1           
; PRESS_DRIVEN	20.305	-1.0        
 80              	1011.00     	0           	                	;
; NFLOURS     	1           
; PRESS_DRIVEN	20.305	-1.0        
 81              	997.00      	0           	                	;
; NFLOURS     	1           
; PRESS_DRIVEN	20.305	-1.0        
 82              	1001.00     	0           	                	;
; NFLOURS     	1           
; PRESS_DRIVEN	20.305	-1.0        
 83              	1005.00     	0           	                	;
; NFLOURS     	1           
; PRESS_DRIVEN	20.305	-1.0        
 84              	1000.50     	0           	                	;
; NFLOURS     	1           
; PRESS_DRIVEN	20.305	-1.0        
 85              	1011.50     	0           	                	;
; NFLOURS     	1           
; PRESS_DRIVEN	20.305	-1.0        
 86              	1005.00     	0           	                	;
; NFLOURS     	1           
; PRESS_DRIVEN	20.305	-1.0        
 87              	1006.50     	0           	                	;
; NFLOURS     	1           
; PRESS_DRIVEN	20.305	-1.0        
 88              	1002.25     	0           	                	;
; NFLOURS     	1           
; PRESS_DRIVEN	20.305	-1.0        
 89              	1004.50     	0           	                	;
; NFLOURS     	1           
; PRESS_DRIVEN	20.305	-1.0        
 90              	1013.00     	0           	                	;
; NFLOURS     	1           
; PRESS_DRIVEN	20.305	-1.0        
 91              	1000.50     	0           	                	;
; NFLOURS     	1           
; PRESS_DRIVEN	20.305	-1.0        
 92              	1012.00     	0           	                	;
; NFLOURS     	1           
; PRESS_DRIVEN	20.305	-1.0        
 93              	1000.50     	0           	                	;
; NFLOURS     	1           
; PRESS_DRIVEN	20.305	-1.0        
 94              	1006.00     	0           	                	;
; NFLOURS     	1           
; PRESS_DRIVEN	20.305	-1.0        
 95              	1004.00     	0           	                	;
; NFLOURS     	1           
; PRESS_DRIVEN	20.305	-1.0        
 96              	1003.50     	0           	                	;
; NFLOURS     	1           
; PRESS_DRIVEN	20.305	-1.0        
 97              	1005.00     	0           	                	;
; NFLOURS     	1           
; PRESS_DRIVEN	20.305	-1.0        
 98              	1005.00     	0           	                	;
; NFLOURS     	1           
; PRESS_DRIVEN	20.305	-1.0        
 99              	1008.00     	0           	                	;
; NFLOURS     	1           
; PRESS_DRIVEN	20.305	-1.0        
 100             	1003.00     	0           	                	;
; NFLOURS     	1           
; PRESS_DRIVEN	20.305	-1.0        
 101             	1000.00     	0           	                	;
; NFLOURS     	1           
; PRESS_DRIVEN	20.305	-1.0        
 102             	1000.00     	0           	                	;
; NFLOURS     	1           
; PRESS_DRIVEN	20.305	-1.0        
 103             	1000.00     	0           	                	;
; NFLOURS     	1           
; PRESS_DRIVEN	20.305	-1.0        
 104             	988.00      	0           	                	;
; NFLOURS     	1           
; PRESS_DRIVEN	20.305	-1.0        
 105             	992.50      	0           	                	;
; NFLOURS     	1           
; PRESS_DRIVEN	20.305	-1.0        
 106             	997.75      	0           	                	;
; NFLOURS     	1           
; PRESS_DRIVEN	20.305	-1.0        
 107             	983.00      	0           	                	;
; NFLOURS     	1           
; PRESS_DRIVEN	20.305	-1.0        
 108             	993.25      	0           	                	;
; NFLOURS     	1           
; PRESS_DRIVEN	20.305	-1.0        
 109             	970.00      	0           	                	;
; NFLOURS     	1           
; PRESS_DRIVEN	20.305	-1.0        
 110             	993.00      	0           	                	;
; NFLOURS     	1           
; PRESS_DRIVEN	20.305	-1.0        
 111             	1002.75     	0           	                	;
; NFLOURS     	1           
; PRESS_DRIVEN	20.305	-1.0        
 112             	969.00      	0           	                	;
; NFLOURS     	1           
; PRESS_DRIVEN	20.305	-1.0        
 113             	994.00      	0           	                	;
; NFLOURS     	1           
; PRESS_DRIVEN	20.305	-1.0        
 114             	999.75      	0           	                	;
; NFLOURS     	1           
; PRESS_DRIVEN	20.305	-1.0        
 115             	995.00      	0           	                	;
; NFLOURS     	1           
; PRESS_DRIVEN	20.305	-1.0        
 116             	977.00      	0           	                	;
; NFLOURS     	1           
; PRESS_DRIVEN	20.305	-1.0        
 117             	1000.00     	0           	                	;
; NFLOURS     	1           
; PRESS_DRIVEN	20.305	-1.0        
 118             	993.00      	0           	                	;
; NFLOURS     	1           
; PRESS_DRIVEN	20.305	-1.0        
 119             	994.00      	0           	                	;
; NFLOURS     	1           
; PRESS_DRIVEN	20.305	-1.0        
 120             	996.00      	0           	                	;
; NFLOURS     	1           
; PRESS_DRIVEN	20.305	-1.0        
 121             	997.25      	0           	                	;
; NFLOURS     	1           
; PRESS_DRIVEN	20.305	-1.0        
 122             	991.00      	0           	                	;
; NFLOURS     	1           
; PRESS_DRIVEN	20.305	-1.0        
 123             	992.00      	0           	                	;
; NFLOURS     	1           
; PRESS_DRIVEN	20.305	-1.0        
 124             	1002.00     	0           	                	;
; NFLOURS     	1           
; PRESS_DRIVEN	20.305	-1.0        
 125             	992.00      	0           	                	;
; NFLOURS     	1           
; PRESS_DRIVEN	20.305	-1.0        
 126             	995.00      	0           	                	;
; NFLOURS     	1           
; PRESS_DRIVEN	20.305	-1.0        
 127             	991.00      	0           	                	;
; NFLOURS     	1           
; PRESS_DRIVEN	20.305	-1.0        
 128             	993.00      	0           	                	;
; NFLOURS     	1           
; PRESS_DRIVEN	20.305	-1.0        
 129             	998.00      	0           	                	;
; NFLOURS     	1           
; PRESS_DRIVEN	20.305	-1.0        
 130             	1005.25     	0           	                	;
; NFLOURS     	1           
; PRESS_DRIVEN	20.305	-1.0        
 131             	990.00      	0           	                	;
; NFLOURS     	1           
; PRESS_DRIVEN	20.305	-1.0        
 132             	994.25      	0           	                	;
; NFLOURS     	1           
; PRESS_DRIVEN	20.305	-1.0        
 133             	999.25      	0           	                	;
; NFLOURS     	1           
; PRESS_DRIVEN	20.305	-1.0        
 134             	993.25      	0           	                	;
; NFLOURS     	1           
; PRESS_DRIVEN	20.305	-1.0        
 135             	999.75      	0           	                	;
; NFLOURS     	1           
; PRESS_DRIVEN	20.305	-1.0        
 136             	995.38      	0           	                	;
; NFLOURS     	1           
; PRESS_DRIVEN	20.305	-1.0        
 137             	988.00      	0           	                	;
; NFLOURS     	1           
; PRESS_DRIVEN	20.305	-1.0        
 138             	999.00      	0           	                	;
; NFLOURS     	1           
; PRESS_DRIVEN	20.305	-1.0        
 139             	998.50      	0           	                	;
; NFLOURS     	1           
; PRESS_DRIVEN	20.305	-1.0        
 140             	998.25      	0           	                	;
; NFLOURS     	1           
; PRESS_DRIVEN	20.305	-1.0        
 141             	998.38      	0           	                	;
; NFLOURS     	1           
; PRESS_DRIVEN	20.305	-1.0        
 142             	995.00      	0           	                	;
; NFLOURS     	1           
; PRESS_DRIVEN	20.305	-1.0        
 143             	999.00      	0           	                	;
; NFLOURS     	1           
; PRESS_DRIVEN	20.305	-1.0        
 144             	982.00      	0           	                	;
; NFLOURS     	1           
; PRESS_DRIVEN	20.305	-1.0        
 145             	994.00      	0           	                	;
; NFLOURS     	1           
; PRESS_DRIVEN	20.305	-1.0        
 146             	994.00      	0           	                	;
; NFLOURS     	1           
; PRESS_DRIVEN	20.305	-1.0        
 147             	987.00      	0           	                	;
; NFLOURS     	1           
; PRESS_DRIVEN	20.305	-1.0        
 148             	986.00      	0           	                	;
; NFLOURS     	1           
; PRESS_DRIVEN	20.305	-1.0        
 149             	998.00      	0           	                	;
; NFLOURS     	1           
; PRESS_DRIVEN	20.305	-1.0        
 150             	995.00      	0           	                	;
; NFLOURS     	1           
; PRESS_DRIVEN	20.305	-1.0        
 151             	967.00      	0           	                	;
; NFLOURS     	1           
; PRESS_DRIVEN	20.305	-1.0        
 152             	994.00      	0           	                	;
; NFLOURS     	1           
; PRESS_DRIVEN	20.305	-1.0        
 153             	988.00      	0           	                	;
; NFLOURS     	1           
; PRESS_DRIVEN	20.305	-1.0        
 154             	994.75      	0           	                	;
; NFLOURS     	1           
; PRESS_DRIVEN	20.305	-1.0        
 155             	972.00      	0           	                	;
; NFLOURS     	1           
; PRESS_DRIVEN	20.305	-1.0        
 156             	978.00      	0           	                	;
; NFLOURS     	1           
; PRESS_DRIVEN	20.305	-1.0        
 157             	1007.75     	0           	                	;
; NFLOURS     	1           
; PRESS_DRIVEN	20.305	-1.0        
 158             	1005.75     	0           	                	;
; NFLOURS     	1           
; PRESS_DRIVEN	20.305	-1.0        
 159             	996.75      	0           	                	;
; NFLOURS     	1           
; PRESS_DRIVEN	20.305	-1.0        
 160             	997.50      	0           	                	;
; NFLOURS     	1           
; PRESS_DRIVEN	20.305	-1.0        
 161             	995.00      	0           	                	;
; NFLOURS     	1           
; PRESS_DRIVEN	20.305	-1.0        
 162             	995.00      	0           	                	;
; NFLOURS     	1           
; PRESS_DRIVEN	20.305	-1.0        
 163             	995.00      	0           	                	;
; NFLOURS     	1           
; PRESS_DRIVEN	20.305	-1.0        
 164             	986.00      	0           	                	;
; NFLOURS     	1           
; PRESS_DRIVEN	20.305	-1.0        
 165             	994.00      	0           	                	;
; NFLOURS     	1           
; PRESS_DRIVEN	20.305	-1.0        
 166             	999.25      	0           	                	;
; NFLOURS     	1           
; PRESS_DRIVEN	20.305	-1.0        
 167             	982.00      	0           	                	;
; NFLOURS     	1           
; PRESS_DRIVEN	20.305	-1.0        
 168             	999.75      	0           	                	;
; NFLOURS     	1           
; PRESS_DRIVEN	20.305	-1.0        
 169             	990.00      	0           	                	;
; NFLOURS     	1           
; PRESS_DRIVEN	20.305	-1.0        
 170             	991.00      	0           	                	;
; NFLOURS     	1           
; PRESS_DRIVEN	20.305	-1.0        
 171             	978.00      	0           	                	;
; NFLOURS     	1           
; PRESS_DRIVEN	20.305	-1.0        
 172             	967.00      	0           	                	;
; NFLOURS     	1           
; PRESS_DRIVEN	20.305	-1.0        
 173             	984.00      	0           	                	;
; NFLOURS     	1           
; PRESS_DRIVEN	20.305	-1.0        
 174             	992.00      	0           	                	;
; NFLOURS     	1           
; PRESS_DRIVEN	20.305	-1.0        
 175             	988.00      	0           	                	;
; NFLOURS     	1           
; PRESS_DRIVEN	20.305	-1.0        
 176             	985.00      	0           	                	;
; NFLOURS     	1           
; PRESS_DRIVEN	20.305	-1.0        
 177             	997.00      	0           	                	;
; NFLOURS     	1           
; PRESS_DRIVEN	20.305	-1.0        
 178             	998.25      	0           	                	;
; NFLOURS     	1           
; PRESS_DRIVEN	20.305	-1.0        
 179             	997.00      	0           	                	;
; NFLOURS     	1           
; PRESS_DRIVEN	20.305	-1.0        
 180             	998.00      	0           	                	;
; NFLOURS     	1           
; PRESS_DRIVEN	20.305	-1.0        
 181             	992.00      	0           	                	;
; NFLOURS     	1           
; PRESS_DRIVEN	20.305	-1.0        
 182             	985.00      	0           	                	;
; NFLOURS     	1           
; PRESS_DRIVEN	20.305	-1.0        
 183             	995.00      	0           	                	;
; NFLOURS     	1           
; PRESS_DRIVEN	20.305	-1.0        
 184             	1003.25     	0           	                	;
; NFLOURS     	1           
; PRESS_DRIVEN	20.305	-1.0        
 185             	1005.75     	0           	                	;
; NFLOURS     	1           
; PRESS_DRIVEN	20.305	-1.0        
 186             	986.00      	0           	                	;
; NFLOURS     	1           
; PRESS_DRIVEN	20.305	-1.0        
 187             	992.50      	0           	                	;
; NFLOURS     	1           
; PRESS_DRIVEN	20.305	-1.0        
 188             	992.00      	0           	                	;
; NFLOURS     	1           
; PRESS_DRIVEN	20.305	-1.0        
 189             	967.50      	0           	                	;
; NFLOURS     	1           
; PRESS_DRIVEN	20.305	-1.0        
 190             	1001.75     	0           	                	;
; NFLOURS     	1           
; PRESS_DRIVEN	20.305	-1.0        
 191             	999.50      	0           	                	;
; NFLOURS     	1           
; PRESS_DRIVEN	20.305	-1.0        
 192             	1004.75     	0           	                	;
; NFLOURS     	1           
; PRESS_DRIVEN	20.305	-1.0        
 193             	987.00      	0           	                	;
; NFLOURS     	1           
; PRESS_DRIVEN	20.305	-1.0        
 194             	994.00      	0           	                	;
; NFLOURS     	1           
; PRESS_DRIVEN	20.305	-1.0        
 195             	992.00      	0           	                	;
; NFLOURS     	1           
; PRESS_DRIVEN	20.305	-1.0        
 196             	985.00      	0           	                	;
; NFLOURS     	1           
; PRESS_DRIVEN	20.305	-1.0        
 197             	1003.75     	0           	                	;
; NFLOURS     	1           
; PRESS_DRIVEN	20.305	-1.0        
 198             	995.00      	0           	                	;
; NFLOURS     	1           
; PRESS_DRIVEN	20.305	-1.0        
 199             	1005.75     	0           	                	;
; NFLOURS     	1           
; PRESS_DRIVEN	20.305	-1.0        
 200             	991.00      	0           	                	;
; NFLOURS     	1           
; PRESS_DRIVEN	20.305	-1.0        
 201             	973.00      	0           	                	;
; NFLOURS     	1           
; PRESS_DRIVEN	20.305	-1.0        
 202             	968.00      	0           	                	;
; NFLOURS     	1           
; PRESS_DRIVEN	20.305	-1.0        
 203             	1000.00     	0           	                	;
; NFLOURS     	1           
; PRESS_DRIVEN	20.305	-1.0        
 204             	1000.00     	0           	                	;
; NFLOURS     	1           
; PRESS_DRIVEN	20.305	-1.0        
 205             	1000.00     	0           	                	;
; NFLOURS     	1           
; PRESS_DRIVEN	20.305	-1.0        
 206             	1000.00     	0           	                	;
; NFLOURS     	1           
; PRESS_DRIVEN	20.305	-1.0        
 207             	1000.00     	0           	                	;
; NFLOURS     	1           
; PRESS_DRIVEN	20.305	-1.0        
 208             	1000.00     	0           	                	;
; NFLOURS     	1           
; PRESS_DRIVEN	20.305	-1.0        
 209             	1000.00     	0           	                	;
; NFLOURS     	1           
; PRESS_DRIVEN	20.305	-1.0        
 210             	995.00      	0           	                	;
; NFLOURS     	1           
; PRESS_DRIVEN	20.305	-1.0        
 211             	996.00      	0           	                	;
; NFLOURS     	1           
; PRESS_DRIVEN	20.305	-1.0        
 212             	999.00      	0           	                	;
; NFLOURS     	1           
; PRESS_DRIVEN	20.305	-1.0        
 213             	987.00      	0           	                	;
; NFLOURS     	1           
; PRESS_DRIVEN	20.305	-1.0        
 214             	972.50      	0           	                	;
; NFLOURS     	1           
; PRESS_DRIVEN	20.305	-1.0        
 215             	1005.00     	0           	                	;
; NFLOURS     	1           
; PRESS_DRIVEN	20.305	-1.0        
 216             	975.50      	0           	                	;
; NFLOURS     	1           
; PRESS_DRIVEN	20.305	-1.0        
 217             	995.00      	0           	                	;
; NFLOURS     	1           
; PRESS_DRIVEN	20.305	-1.0        
 218             	979.50      	0           	                	;
; NFLOURS     	1           
; PRESS_DRIVEN	20.305	-1.0        
 219             	991.50      	0           	                	;
; NFLOURS     	1           
; PRESS_DRIVEN	20.305	-1.0        
 220             	981.50      	0           	                	;
; NFLOURS     	1           
; PRESS_DRIVEN	20.305	-1.0        
 221             	977.50      	0           	                	;
; NFLOURS     	1           
; PRESS_DRIVEN	20.305	-1.0        
 222             	995.00      	0           	                	;
; NFLOURS     	1           
; PRESS_DRIVEN	20.305	-1.0        
 223             	993.00      	0           	                	;
; NFLOURS     	1           
; PRESS_DRIVEN	20.305	-1.0        
 224             	988.50      	0           	                	;
; NFLOURS     	1           
; PRESS_DRIVEN	20.305	-1.0        
 225             	980.50      	0           	                	;
; NFLOURS     	1           
; PRESS_DRIVEN	20.305	-1.0        
 226             	976.50      	0           	                	;
; NFLOURS     	1           
; PRESS_DRIVEN	20.305	-1.0        
 227             	986.00      	0           	                	;
; NFLOURS     	1           
; PRESS_DRIVEN	20.305	-1.0        
 228             	987.00      	0           	                	;
; NFLOURS     	1           
; PRESS_DRIVEN	20.305	-1.0        
 229             	986.00      	0           	                	;
; NFLOURS     	1           
; PRESS_DRIVEN	20.305	-1.0        
 230             	997.00      	0           	                	;
; NFLOURS     	1           
; PRESS_DRIVEN	20.305	-1.0        
 231             	989.50      	0           	                	;
; NFLOURS     	1           
; PRESS_DRIVEN	20.305	-1.0        
 232             	990.00      	0           	                	;
; NFLOURS     	1           
; PRESS_DRIVEN	20.305	-1.0        
 233             	991.00      	0           	                	;
; NFLOURS     	1           
; PRESS_DRIVEN	20.305	-1.0        
 234             	990.50      	0           	                	;
; NFLOURS     	1           
; PRESS_DRIVEN	20.305	-1.0        
 235             	979.50      	0           	                	;
; NFLOURS     	1           
; PRESS_DRIVEN	20.305	-1.0        
 236             	980.50      	0           	                	;
; NFLOURS     	1           
; PRESS_DRIVEN	20.305	-1.0        
 237             	993.50      	0           	                	;
; NFLOURS     	1           